T42/data/state_estimation/ES_Dx_03_2030_S_Bd/ES_Dx_03_2030_S_Bd_t8.csv
bus,vm_pu,va_degree,p_mw,q_mvar
1,0.998971,0.000097,111.846067,38.653053
7966,1.032091,-0.034267,-2.372709,-0.711892
7967,1.037073,-0.030631,-6.284529,-1.885453
7968,1.036251,-0.029453,-2.255346,-0.676553
7969,1.035199,-0.031137,-3.880211,-1.164060
7970,1.035233,-0.030764,-3.815612,-1.144666
7971,1.036199,-0.029945,-2.317858,-0.695343
7972,1.036566,-0.029699,-0.874981,-0.262449
7973,1.044749,-0.030820,-3.823478,-1.147028
7974,1.044727,-0.030342,-1.187301,-0.356291
7975,1.029011,-0.026117,-2.005272,-0.601599
7976,1.029027,-0.026660,-5.334540,-1.600333
7977,1.028841,-0.025825,-3.635825,-1.090708
7978,1.045414,-0.029820,-0.755577,-0.226699
7979,1.044888,-0.029477,-2.136121,-0.640815
7980,1.028052,-0.025264,-1.812245,-0.543716
7981,1.037836,-0.037434,-3.323419,-0.997088
7982,1.044702,-0.030703,-0.187417,-0.056161
7983,1.044446,-0.030594,-3.067838,-0.920431
7984,1.043679,-0.031230,-2.510926,-0.753361
7985,1.029896,-0.036080,-0.359827,-0.107931
7986,1.037850,-0.028441,-0.330172,-0.099151
7987,1.029213,-0.025409,-0.351565,-0.105511
7988,1.034945,-0.029823,-0.326136,-0.097865
7989,1.044112,-0.029037,-0.325677,-0.097626
7990,1.046229,-0.029918,-0.351517,-0.105505
7991,1.029406,-0.025092,-0.328177,-0.098603
7992,1.029179,-0.026541,-0.343124,-0.102893
7993,1.044095,-0.030003,-0.393182,-0.117913
7994,1.037025,-0.029676,-0.404042,-0.121095
7995,1.028510,-0.026750,-0.331752,-0.099494
7996,1.045287,-0.030363,-0.393916,-0.118217
7997,1.035875,-0.029404,-0.366818,-0.110066
7998,1.028325,-0.027236,-0.359796,-0.107871
7999,1.045520,-0.028797,-0.436148,-0.130857
8000,1.029149,-0.025716,-0.338953,-0.101679
8001,1.045981,-0.029594,-0.453602,-0.136056
8002,1.029724,-0.026402,-0.341423,-0.102403
8003,1.029295,-0.025739,-0.341524,-0.102433
8004,1.029139,-0.026042,-0.338308,-0.101539
8005,1.044149,-0.030757,-0.345248,-0.103670
8006,1.028077,-0.026444,-0.468044,-0.140384
8007,1.043776,-0.029681,-0.338949,-0.101669
8395,1.036819,-0.036827,-0.189305,-0.062953
8396,1.036073,-0.036932,-0.192396,-0.064064
8397,1.036426,-0.037002,-0.103657,-0.033813
8398,1.037422,-0.037324,-0.121750,-0.040524
8399,1.036983,-0.037445,-0.072234,-0.023791
8400,1.043509,-0.031451,-0.056078,-0.018117
8401,1.044036,-0.030864,-0.292711,-0.097041
8402,1.044046,-0.030282,-0.223669,-0.072743
8403,1.036849,-0.036944,-0.128225,-0.041255
8404,1.027160,-0.026034,-0.069656,-0.022766
8405,1.027441,-0.025542,-0.155894,-0.051091
8406,1.027131,-0.026522,-0.045196,-0.014404
8407,1.037018,-0.038310,-0.213622,-0.069195
8408,1.027206,-0.026785,-0.150909,-0.049111
8409,1.026877,-0.026639,-0.029681,-0.009270
8410,1.028485,-0.025919,-0.111911,-0.036806
8411,1.036666,-0.037911,-0.081686,-0.026382
8412,1.044391,-0.030762,-0.216917,-0.070192
8413,1.037159,-0.037389,-0.120538,-0.039919
8414,1.027781,-0.026852,-0.054459,-0.017571
8415,1.037276,-0.037309,-0.104001,-0.034024
8416,1.037647,-0.037104,-0.127002,-0.040855
8417,1.027121,-0.026013,-0.108140,-0.035463
8418,1.027213,-0.025464,-0.211301,-0.068580
8419,1.037749,-0.037262,-0.131800,-0.042374
8420,1.037241,-0.037566,-0.075597,-0.025080
8421,1.028057,-0.027107,-0.119959,-0.039795
8422,1.029233,-0.026630,-0.123640,-0.041094
8423,1.028419,-0.026288,-0.194264,-0.064691
8424,1.044255,-0.029916,-0.295868,-0.098038
8425,1.043970,-0.029731,-0.073528,-0.024391
8426,1.044776,-0.030280,-0.172973,-0.056947
8427,1.043808,-0.030205,-0.054524,-0.017497
8428,1.038110,-0.037058,-0.038174,-0.012117
8429,1.037475,-0.036983,-0.290872,-0.095643
8430,1.027503,-0.026307,-0.077972,-0.025895
8431,1.027894,-0.026711,-0.164847,-0.054839
8432,1.044218,-0.030000,-0.215660,-0.069953
8433,1.044694,-0.031184,-0.216996,-0.070399
8434,1.045136,-0.031190,-0.136633,-0.044197
8435,1.028012,-0.026732,-0.207035,-0.066844
8436,1.027337,-0.026033,-0.078721,-0.025154
8437,1.027997,-0.026044,-0.161812,-0.052975
8438,1.043881,-0.031063,-0.048899,-0.015680
8439,1.028730,-0.026608,-0.050850,-0.016227
8440,1.044177,-0.030515,-0.275084,-0.090850
8441,1.044715,-0.029311,-0.176135,-0.058057
8442,1.044619,-0.029969,-0.055805,-0.017921
8443,1.044587,-0.029945,-0.055704,-0.018005
8444,1.043890,-0.030009,-0.249713,-0.081643
8445,1.036832,-0.037547,-0.061246,-0.019971
8446,1.044448,-0.030078,-0.150818,-0.049038
8447,1.045277,-0.030957,-0.203521,-0.066198
8448,1.045059,-0.030003,-0.062610,-0.020378
8449,1.044688,-0.029841,-0.141781,-0.045856
8450,1.046790,-0.029478,-0.000025,-0.000035
8451,1.044252,-0.029724,-0.066339,-0.021790
8452,1.044909,-0.029720,-0.186348,-0.061745
8453,1.028151,-0.025661,-0.129308,-0.041657
8454,1.044798,-0.029098,-0.113495,-0.037674
8455,1.045964,-0.029487,-0.125623,-0.040270
8456,1.037891,-0.036987,-0.088444,-0.028525
8457,1.038421,-0.037589,-0.008107,-0.002416
8458,1.028526,-0.026435,-0.095303,-0.031014
8459,1.044236,-0.029745,-0.077622,-0.025818
8460,1.028214,-0.026669,-0.076996,-0.025412
8461,1.028617,-0.026751,-0.029517,-0.009201
8462,1.029376,-0.026774,-0.158691,-0.051820
8463,1.044588,-0.029622,-0.073330,-0.024293
8464,1.044895,-0.030340,-0.168588,-0.055409
8465,1.044258,-0.029746,-0.202088,-0.065003
8466,1.044136,-0.029743,-0.301573,-0.100274
8467,1.044328,-0.029814,-0.013493,-0.004042
8468,1.028891,-0.026620,-0.102587,-0.033666
8469,1.028852,-0.025889,-0.212800,-0.069055
8470,1.045928,-0.029023,-0.153862,-0.050161
8471,1.045952,-0.029718,-0.225871,-0.073197
8472,1.045236,-0.029369,-0.201288,-0.064624
8473,1.028665,-0.025716,-0.108652,-0.035569
8474,1.027928,-0.025381,-0.080491,-0.025857
8475,1.045148,-0.029746,-0.137587,-0.044447
8476,1.028599,-0.026240,-0.027629,-0.008654
8477,1.027976,-0.026160,-0.144819,-0.047539
8478,1.045198,-0.029747,-0.123665,-0.040872
8479,1.044845,-0.029739,-0.057759,-0.018621
8480,1.029345,-0.026283,-0.070279,-0.023088
8481,1.029800,-0.026124,-0.198694,-0.066023
8482,1.028838,-0.025960,-0.178496,-0.058676
8483,1.028165,-0.026900,-0.252236,-0.082627
8484,1.045335,-0.029575,-0.168671,-0.055860
8485,1.029502,-0.026437,-0.074883,-0.024778
8486,1.028887,-0.026415,0.000055,0.000068
8487,1.045299,-0.029146,-0.260295,-0.085409
8488,1.045892,-0.029562,-0.078498,-0.025167
8489,1.029216,-0.026449,-0.049702,-0.015854
8490,1.027725,-0.025819,-0.063504,-0.020638
8491,1.029515,-0.025177,-0.151936,-0.049561
8492,1.027947,-0.026465,-0.120930,-0.040188
8493,1.045211,-0.030061,-0.166380,-0.054626
8494,1.046381,-0.030177,-0.041673,-0.013111
8495,1.045942,-0.030279,-0.121657,-0.040217
8496,1.045156,-0.030861,-0.070030,-0.022947
8497,1.045133,-0.029985,-0.226767,-0.073972
8498,1.029077,-0.025507,-0.266760,-0.087703
8499,1.045469,-0.029898,-0.119171,-0.039471
8500,1.045622,-0.029813,-0.302624,-0.100582
8501,1.045712,-0.029723,-0.077024,-0.025401
8502,1.045153,-0.030094,-0.137390,-0.044116
8503,1.029077,-0.026459,-0.279144,-0.092180
8504,1.045400,-0.029625,-0.061672,-0.020043
8505,1.046434,-0.029708,-0.120261,-0.039851
8506,1.045953,-0.030059,-0.264173,-0.086937
8507,1.046292,-0.029516,-0.063956,-0.020940
8508,1.029248,-0.026123,-0.077653,-0.025662
8509,1.029412,-0.026177,-0.073008,-0.023946
8510,1.046326,-0.029521,-0.071886,-0.023717
8511,1.028450,-0.026107,-0.191934,-0.063750
8512,1.045297,-0.028694,-0.181301,-0.060191
8513,1.046015,-0.029267,-0.267332,-0.087999
8514,1.045975,-0.029999,-0.174536,-0.057631
8515,1.046510,-0.030073,-0.216072,-0.069836
8516,1.030073,-0.025599,-0.090537,-0.029270
8517,1.046464,-0.029014,-0.256253,-0.084144
8518,1.046137,-0.029150,-0.083887,-0.027059
8519,1.029525,-0.025981,-0.255712,-0.083754
8520,1.045538,-0.028850,-0.105482,-0.034587
8521,1.029560,-0.025872,-0.266255,-0.087618
8522,1.029592,-0.026678,-0.114124,-0.037539
8523,1.028958,-0.026504,-0.180475,-0.059527
8524,1.029225,-0.026452,-0.185565,-0.061449
8525,1.029267,-0.026356,-0.049920,-0.015929
8526,1.029696,-0.025589,-0.154833,-0.050695
8527,1.044974,-0.030539,-0.078521,-0.025104
8528,1.029517,-0.025835,-0.039493,-0.012519
8529,1.028740,-0.026291,-0.066144,-0.021621
8530,1.046160,-0.029988,-0.237134,-0.077125
8531,1.046159,-0.029311,-0.074895,-0.024715
8532,1.029842,-0.026926,-0.068839,-0.022637
8533,1.045835,-0.030549,-0.017805,-0.005380
8534,1.029750,-0.026713,-0.176612,-0.058323
8535,1.045895,-0.029591,-0.064659,-0.021163
8536,1.047261,-0.029209,-0.047238,-0.015031
8537,1.029580,-0.026548,-0.075055,-0.024804
8538,1.029148,-0.025860,-0.074839,-0.024754
8539,1.044727,-0.029649,-0.295526,-0.098337
8540,1.044638,-0.030378,-0.100612,-0.032843
8541,1.044709,-0.029727,-0.156149,-0.050855
8542,1.046167,-0.030146,-0.117687,-0.038952
8543,1.029232,-0.026355,-0.151859,-0.049636
8544,1.029134,-0.025822,-0.196069,-0.065374
8545,1.044434,-0.030955,-0.135314,-0.043641
8546,1.029166,-0.026280,-0.283836,-0.094170
8547,1.029714,-0.025729,-0.153850,-0.050133
8548,1.029659,-0.026133,-0.224874,-0.072797
8549,1.044463,-0.030355,-0.150740,-0.048961
8550,1.044475,-0.030610,-0.153483,-0.050236
8551,1.028482,-0.025639,-0.035600,-0.011187
8552,1.044404,-0.030774,-0.044489,-0.014227
8553,1.046107,-0.029264,-0.086743,-0.027934
8554,1.045957,-0.030419,-0.050391,-0.016167
8555,1.045972,-0.029732,-0.185331,-0.061263
8556,1.044551,-0.029878,-0.065998,-0.021559
8557,1.028732,-0.025466,-0.138067,-0.044642
8558,1.045393,-0.030194,-0.184904,-0.061195
8559,1.046330,-0.029435,-0.041887,-0.013375
8560,1.043434,-0.029881,-0.164991,-0.054054
8561,1.028188,-0.025167,-0.068576,-0.022470
8562,1.027766,-0.025957,-0.116140,-0.038369
8563,1.044696,-0.029004,-0.143210,-0.046323
8564,1.044397,-0.029146,-0.056032,-0.018124
8565,1.045666,-0.030337,-0.167877,-0.054967
8566,1.028660,-0.026736,-0.106865,-0.035084
8567,1.045441,-0.029077,-0.250550,-0.081976
8568,1.044868,-0.029874,-0.179484,-0.059231
8569,1.045496,-0.030363,-0.154142,-0.050201
8570,1.028585,-0.026500,-0.156301,-0.051232
8571,1.029821,-0.025875,-0.175796,-0.057744
8572,1.028547,-0.025377,-0.087536,-0.028148
8573,1.043924,-0.029083,-0.103689,-0.034030
8574,1.028216,-0.026304,-0.257487,-0.084582
8575,1.045524,-0.029697,-0.158229,-0.051572
8576,1.028921,-0.026709,-0.077126,-0.025555
8577,1.045582,-0.030773,-0.113895,-0.037659
8578,1.027773,-0.026121,-0.024479,-0.007543
8579,1.046017,-0.030618,-0.159321,-0.052701
8580,1.045623,-0.029520,-0.058112,-0.018843
8581,1.028775,-0.026378,-0.059710,-0.019411
8582,1.045746,-0.030437,-0.124690,-0.041311
8583,1.046060,-0.029326,-0.026910,-0.008255
8584,1.029404,-0.025043,-0.167337,-0.055026
8585,1.045212,-0.029575,-0.180684,-0.059644
8586,1.045493,-0.029283,-0.056221,-0.018318
8587,1.028314,-0.027196,-0.170186,-0.055914
8588,1.045837,-0.029534,-0.284611,-0.094252
8589,1.028067,-0.026303,-0.080876,-0.026073
8590,1.028656,-0.025651,-0.048227,-0.015424
8591,1.045422,-0.029812,-0.187791,-0.062447
8592,1.045127,-0.030289,-0.196296,-0.065521
8593,1.034833,-0.030576,-0.295820,-0.098000
8594,1.034767,-0.029459,-0.159750,-0.052659
8595,1.030172,-0.026247,-0.197016,-0.065981
8596,1.029101,-0.026843,-0.162236,-0.053224
8597,1.036391,-0.029806,-0.116220,-0.038374
8598,1.028762,-0.025700,-0.234138,-0.076204
8599,1.045138,-0.029539,-0.065445,-0.021337
8600,1.028582,-0.026393,-0.221869,-0.072303
8601,1.028845,-0.027047,-0.132757,-0.042771
8602,1.028790,-0.025371,-0.044519,-0.014186
8603,1.028274,-0.026041,-0.276728,-0.091555
8604,1.028533,-0.026698,-0.185742,-0.061500
8605,1.044528,-0.029676,-0.073503,-0.024263
8606,1.044470,-0.029992,-0.095055,-0.030880
8607,1.045017,-0.030789,-0.117541,-0.038646
8608,1.027969,-0.026573,-0.072887,-0.024107
8609,1.045213,-0.029877,-0.208845,-0.067442
8610,1.035992,-0.030563,-0.115052,-0.037922
8611,1.028835,-0.026323,-0.212300,-0.068567
8612,1.044857,-0.028772,-0.063469,-0.020735
8613,1.044763,-0.030878,-0.048102,-0.015387
8614,1.028813,-0.026112,-0.296224,-0.098753
8615,1.028335,-0.026342,-0.128155,-0.043335
8616,1.028410,-0.026921,-0.201714,-0.065048
8617,1.028615,-0.026996,-0.132526,-0.042791
8618,1.027671,-0.026654,-0.131687,-0.042481
8619,1.028107,-0.025192,-0.066617,-0.021735
8620,1.028629,-0.026789,-0.074951,-0.024856
8621,1.044119,-0.029440,-0.060167,-0.019615
8622,1.043831,-0.029958,-0.207904,-0.067151
8623,1.029218,-0.026750,-0.172006,-0.056421
8624,1.044898,-0.029832,-0.195509,-0.065055
8625,1.035516,-0.029709,-0.073352,-0.024145
8626,1.035527,-0.030634,-0.086689,-0.027827
8627,1.045895,-0.029789,-0.097601,-0.031845
8628,1.044894,-0.030293,-0.162388,-0.052986
8629,1.044527,-0.031336,-0.082976,-0.026710
8630,1.044697,-0.031457,-0.125245,-0.041522
8631,1.045991,-0.030408,-0.069114,-0.022669
8632,1.028050,-0.027312,-0.024696,-0.007671
8633,1.027883,-0.026563,-0.078439,-0.026035
8634,1.044413,-0.030728,-0.193392,-0.064093
8635,1.029260,-0.026741,-0.185669,-0.061652
8636,1.029695,-0.026406,-0.202370,-0.065168
8637,1.044791,-0.029817,-0.255109,-0.083728
8638,1.046122,-0.030053,-0.111124,-0.036600
8639,1.044028,-0.031323,-0.109780,-0.036120
8640,1.043825,-0.030179,-0.148880,-0.048374
8641,1.028311,-0.025999,-0.279550,-0.092301
8642,1.045140,-0.029658,-0.094378,-0.030608
8643,1.035495,-0.029416,-0.066816,-0.021788
8644,1.028756,-0.026934,-0.086919,-0.028073
8645,1.036071,-0.029633,-0.169816,-0.055947
8646,1.044918,-0.030959,-0.064509,-0.021034
8647,1.044895,-0.030734,-0.093526,-0.030411
8648,1.036210,-0.030961,-0.195055,-0.065101
8649,1.044614,-0.029445,-0.100516,-0.032743
8650,1.028446,-0.026462,-0.235857,-0.076873
8651,1.044847,-0.028832,-0.118637,-0.039239
8652,1.036675,-0.029098,-0.134204,-0.043451
8653,1.036388,-0.029624,-0.048251,-0.015392
8654,1.027520,-0.026929,-0.040224,-0.012627
8655,1.043689,-0.029829,-0.156667,-0.051332
8656,1.044980,-0.030581,-0.115357,-0.038044
8657,1.029583,-0.025704,-0.315020,-0.105805
8658,1.037112,-0.029277,-0.180360,-0.059602
8659,1.028256,-0.026222,-0.109075,-0.035959
8660,1.036490,-0.029507,-0.073102,-0.024161
8661,1.035472,-0.029345,-0.105293,-0.034513
8662,1.044184,-0.030966,-0.058881,-0.019106
8663,1.044362,-0.030621,-0.102089,-0.033407
8664,1.036311,-0.030555,-0.046577,-0.014875
8665,1.045395,-0.030180,-0.122153,-0.040345
8666,1.027358,-0.026438,-0.089884,-0.029006
8667,1.028319,-0.026891,-0.294252,-0.097596
8668,1.035365,-0.029748,-0.227219,-0.073722
8669,1.044224,-0.029349,-0.232194,-0.076044
8670,1.036614,-0.029817,-0.152346,-0.049453
8671,1.028500,-0.027021,-0.109295,-0.036009
8672,1.036850,-0.029953,-0.214059,-0.069509
8673,1.036539,-0.027752,-0.062275,-0.020231
8674,1.036693,-0.029450,-0.055557,-0.017833
8675,1.036814,-0.030252,-0.103767,-0.033865
8676,1.036754,-0.028625,-0.074219,-0.024489
8677,1.028543,-0.026638,-0.155990,-0.050852
8678,1.027901,-0.026096,-0.124285,-0.041303
8679,1.036108,-0.029141,-0.103350,-0.033631
8680,1.036282,-0.029841,-0.214907,-0.069145
8681,1.035868,-0.030254,-0.179042,-0.059135
8682,1.036628,-0.029908,-0.076039,-0.025213
8683,1.028852,-0.026443,-0.054875,-0.017649
8684,1.028410,-0.026148,-0.207302,-0.067023
8685,1.036757,-0.030501,-0.229720,-0.075059
8686,1.037034,-0.030204,-0.067564,-0.022112
8687,1.044975,-0.031072,-0.051037,-0.016290
8688,1.035600,-0.029776,-0.070941,-0.023217
8689,1.037298,-0.029250,0.000080,-0.000075
8690,1.036906,-0.030098,-0.218414,-0.071210
8691,1.037846,-0.029420,-0.118085,-0.039054
8692,1.035913,-0.029259,-0.050719,-0.016359
8693,1.036472,-0.029081,-0.160779,-0.052833
8694,1.037076,-0.029670,-0.236911,-0.077390
8695,1.027946,-0.026333,-0.166049,-0.054329
8696,1.034976,-0.030882,-0.071621,-0.023419
8697,1.035146,-0.031089,-0.083272,-0.026671
8698,1.036525,-0.029660,-0.219215,-0.071103
8699,1.036167,-0.029229,-0.048470,-0.015530
8700,1.037152,-0.029060,-0.205518,-0.066223
8701,1.034260,-0.030872,-0.141030,-0.045542
8702,1.036643,-0.029510,-0.215349,-0.069392
8703,1.036516,-0.029631,-0.055018,-0.017675
8704,1.037272,-0.030264,-0.076695,-0.025383
8705,1.036657,-0.030073,-0.171654,-0.056884
8706,1.028676,-0.026282,-0.167693,-0.055041
8707,1.036546,-0.028603,-0.123451,-0.041059
8708,1.037588,-0.029343,-0.081170,-0.026026
8709,1.036272,-0.029766,-0.218691,-0.070848
8710,1.036566,-0.028409,-0.064474,-0.020977
8711,1.028386,-0.026354,-0.076060,-0.025174
8712,1.034391,-0.031999,-0.066640,-0.021754
8713,1.036460,-0.030878,-0.251784,-0.082390
8714,1.037594,-0.029429,-0.196635,-0.065582
8715,1.035846,-0.030140,-0.114866,-0.038125
8716,1.037460,-0.029333,-0.153738,-0.050156
8717,1.037517,-0.029649,-0.105005,-0.034421
8718,1.036424,-0.029877,-0.301194,-0.100072
8719,1.036391,-0.029421,-0.147002,-0.047791
8720,1.036553,-0.029456,-0.078723,-0.025276
8721,1.034359,-0.030415,-0.068302,-0.022424
8722,1.034937,-0.030958,-0.076342,-0.025197
8723,1.036201,-0.029403,-0.104862,-0.034267
8724,1.036102,-0.029988,-0.094188,-0.030654
8725,1.035846,-0.029984,-0.107778,-0.035195
8726,1.036694,-0.030546,-0.250834,-0.081967
8727,1.035811,-0.030010,-0.046987,-0.014866
8728,1.036600,-0.030412,-0.196100,-0.065431
8729,1.034546,-0.031212,-0.093946,-0.030491
8730,1.036537,-0.028858,-0.108902,-0.035661
8731,1.035531,-0.029794,-0.085641,-0.027548
8732,1.034943,-0.032066,-0.198056,-0.066005
8733,1.036999,-0.028490,-0.116231,-0.038627
8734,1.037268,-0.029884,-0.281991,-0.093644
8735,1.037051,-0.030355,-0.196340,-0.065392
8736,1.036929,-0.029873,-0.064638,-0.021042
8737,1.035554,-0.031435,-0.089656,-0.029042
8738,1.034462,-0.030498,-0.055283,-0.017812
8739,1.037249,-0.029782,-0.164626,-0.053983
8740,1.037003,-0.029748,-0.260491,-0.085656
8741,1.036827,-0.028717,-0.076306,-0.025208
8742,1.036584,-0.029405,-0.112622,-0.037121
8743,1.034690,-0.030821,-0.150044,-0.048591
8744,1.035322,-0.031742,-0.034355,-0.010856
8745,1.036119,-0.029580,-0.103215,-0.033798
8746,1.037094,-0.028286,-0.103882,-0.033983
8747,1.030924,-0.034732,-0.097644,-0.031608
8748,1.030546,-0.034358,-0.134437,-0.043276
8749,1.037473,-0.029364,-0.061928,-0.020076
8750,1.036389,-0.030017,-0.076779,-0.025556
8751,1.031892,-0.034781,-0.056185,-0.018193
8752,1.032048,-0.035099,-0.310877,-0.102845
8753,1.035471,-0.029593,-0.093705,-0.030469
8754,1.035484,-0.029702,-0.078923,-0.025263
8755,1.037239,-0.029660,-0.195202,-0.064874
8756,1.030556,-0.034851,-0.194831,-0.064362
8757,1.036471,-0.029738,-0.073283,-0.024090
8758,1.036559,-0.029464,-0.073442,-0.024268
8759,1.031580,-0.034795,-0.089651,-0.028905
8760,1.037012,-0.029104,-0.070688,-0.023327
8761,1.037055,-0.029809,-0.208138,-0.067896
8762,1.035487,-0.030978,-0.070419,-0.023021
8763,1.035666,-0.029295,-0.163591,-0.053511
8764,1.031853,-0.034645,-0.031498,-0.009745
8765,1.037142,-0.028860,-0.047860,-0.015351
8766,1.036528,-0.030060,-0.197653,-0.066000
8767,1.031539,-0.034584,-0.058908,-0.019181
8768,1.029883,-0.035105,-0.121664,-0.040218
8769,1.030898,-0.034524,-0.244766,-0.079418
8770,1.031495,-0.034755,-0.298827,-0.098219
8771,1.030673,-0.035392,-0.158060,-0.051462
8772,1.030805,-0.035073,-0.081681,-0.026182
8773,1.035667,-0.029568,-0.035773,-0.011179
8774,1.032206,-0.034736,-0.101261,-0.033044
8775,1.035976,-0.030181,-0.158821,-0.052125
8776,1.031539,-0.035501,-0.112359,-0.036836
8777,1.030136,-0.034547,-0.071609,-0.023526
8778,1.031585,-0.034576,-0.079616,-0.025495
8779,1.036174,-0.030573,-0.243964,-0.079777
8780,1.031412,-0.034935,-0.090824,-0.029349
8781,1.035514,-0.030255,-0.120567,-0.039888
8782,1.035130,-0.029665,-0.038214,-0.011981
8783,1.031034,-0.033948,-0.211780,-0.067986
8784,1.031469,-0.035313,-0.038206,-0.012069
8785,1.008923,-0.007433,-0.000016,-0.000008
8786,1.009659,-0.007060,-0.000057,-0.000009
8787,1.009317,-0.007610,0.000023,-0.000070
8788,1.009408,-0.007410,-0.000068,-0.000010
